ucte/ucte-converter/src/test/resources/nominalPower.uct
##C 2007.05.01
Generated by powsybl, 2019.09.23 17:47
Case date: 2019.09.24 19:30
##N
##ZBE
B_SU1_11 Belgium Nod1 0 0 400.00 50.0000 0.00000 0.00000 0.00000
B_SU1_21 Belgium Nod2 0 3 225.00 0.00000 0.00000 100.000 0.00000
##ZFR
F_SU1_11 France Node1 0 0 400.00 50.0000 0.00000 0.00000 0.00000
F_SU1_21 France Node2 0 0 225.00 0.00000 0.00000 0.00000 0.00000
##L
##T
F_SU1_11 F_SU1_21 1 0 400.0 225.0 5000. 0.5500 1.6800 132.5000 200.00 5000   Test 2WT 1
B_SU1_11 B_SU1_21 1 0 400.0 225.0       0.5500 1.6800 13.25000 0.0000 5000   Test 2WT 2
##R
